\BOOKMARK [1][-]{section.1}{How did I do it?}{}% 1
\BOOKMARK [2][-]{subsection.1.1}{Seismic Unix}{section.1}% 2
\BOOKMARK [3][-]{subsubsection.1.1.1}{Command lines}{subsection.1.1}% 3
\BOOKMARK [3][-]{subsubsection.1.1.2}{Description of the header for Seismic Unix}{subsection.1.1}% 4
\BOOKMARK [2][-]{subsection.1.2}{Dataset}{section.1}% 5
\BOOKMARK [3][-]{subsubsection.1.2.1}{P-wave velocity}{subsection.1.2}% 6
\BOOKMARK [3][-]{subsubsection.1.2.2}{Seismic data}{subsection.1.2}% 7
\BOOKMARK [2][-]{subsection.1.3}{SPECFEM2D}{section.1}% 8
\BOOKMARK [3][-]{subsubsection.1.3.1}{Code version and modifications}{subsection.1.3}% 9
\BOOKMARK [3][-]{subsubsection.1.3.2}{How to generate the input files}{subsection.1.3}% 10
\BOOKMARK [3][-]{subsubsection.1.3.3}{Parameters of the simulation}{subsection.1.3}% 11
\BOOKMARK [3][-]{subsubsection.1.3.4}{Source function}{subsection.1.3}% 12
\BOOKMARK [2][-]{subsection.1.4}{Useful tools}{section.1}% 13
\BOOKMARK [1][-]{section.2}{Conjugate gradient method}{}% 14
\BOOKMARK [1][-]{section.3}{Adjoint method and objective functional}{}% 15
\BOOKMARK [2][-]{subsection.3.1}{Adjoint method}{section.3}% 16
\BOOKMARK [2][-]{subsection.3.2}{Augmented functional}{section.3}% 17
\BOOKMARK [2][-]{subsection.3.3}{Objective functional}{section.3}% 18
\BOOKMARK [2][-]{subsection.3.4}{Summary of the procedure}{section.3}% 19
\BOOKMARK [1][-]{section.4}{Articles and books}{}% 20
